12
This is a comment line
H        1.2194260000     -0.1651620000      2.1599560000                 
C        0.6824840000     -0.0923930000      1.2087510000                 
C       -0.7074390000     -0.0351890000      1.1973160000                 
H       -1.2643640000     -0.0629720000      2.1393530000                 
C       -1.3898230000      0.0572170000     -0.0114320000                 
H       -2.4835640000      0.1021430000     -0.0204440000                 
C       -0.6824190000      0.0924780000     -1.2087550000                 
H       -1.2194020000      0.1651950000     -2.1599000000                 
C        0.7074790000      0.0352270000     -1.1972980000                 
H        1.2641300000      0.0628480000     -2.1394580000                 
C        1.3898940000     -0.0571740000      0.0114260000                 
H        2.4835970000     -0.1022170000      0.0204890000                 

